Circuit: * E:\DESKTOP IN HDD\Acads\analog\Simulation Files\opamp_bistable.asc

WARNING: Specified period is not longer than the sum of Trise, Tfall, and Ton for vtriang.  Increasing period to 0.002001
Direct Newton iteration failed to find .op point.  (Use ".option noopiter" to skip.)
Starting Gmin stepping
Gmin = 10
vernier = 0.5
vernier = 0.25
vernier = 0.125
Gmin = 5.5165
vernier = 0.0625
vernier = 0.03125
vernier = 0.015625
vernier = 0.0078125
Gmin = 5.49501
vernier = 0.00390625
vernier = 0.00195313
vernier = 0.000976563
vernier = 0.000488281
Gmin = 5.50104
Gmin = 0
Gmin stepping succeeded in finding the operating point.


Date: Mon Jul 19 16:47:31 2021
Total elapsed time: 0.124 seconds.

tnom = 27
temp = 27
method = modified trap
totiter = 3830
traniter = 2413
tranpoints = 1127
accept = 1096
rejected = 31
matrix size = 31
fillins = 46
solver = Normal
Matrix Compiler1: 3.36 KB object code size  0.6/0.3/[0.1]
Matrix Compiler2: 3.32 KB object code size  0.5/0.5/[0.4]

